units(length='cm', time='s', quantity='mol', act_energy='kcal/mol')

ideal_gas(name='gas',
          elements="H C O N Ne Ar He Si S Cl",
          species="""N2          Ar          He          Ne
                     MV(1)       O2(2)       MVmoo(3)    MVmq5j(4)
                     MVmq4j(5)   MVmq3j(6)   MVmq2j(7)   MVmqmj(8)
                     MV2oo(9)    MV2q5j(10)  MV2q4j(11)  MV2q3j(12)
                     MV2q2j(13)  MV2qmj(14)  MV3oo(15)   MV3q5j(16)
                     MV3q4j(17)  MV3q3j(18)  MV3q2j(19)  MV3qmj(20)
                     MV4oo(21)   MV4q5j(22)  MV4q4j(23)  MV4q3j(24)
                     MV4q2j(25)  MV4qmj(26)  MV5oo(27)   MV5q5j(28)
                     MV5q4j(29)  MV5q3j(30)  MV5q2j(31)  MV5qmj(32)
                     O(33)       H2(34)      H(35)       OH(36)
                     HO2(37)     H2O2(38)    CH(39)      CO(40)
                     CH2(41)     HCO(42)     CH2(S)(43)  CH3(44)
                     CH2O(45)    CH4(46)     CO2(47)     CH2OH(48)
                     CH3O(49)    CH3OH(50)   C2H(51)     C2H2(52)
                     HCCO(53)    C2H3(54)    CH2CO(55)   C2H4(56)
                     C2H5(57)    C2H6(58)    H2O(59)     C(60)
                     HCCOH(61)   CH2CHO(62)  CH3CHO(63)  C3H8(64)
                     C3H7(65)    S(66)       S(67)       C3H5O2(68)
                     S(69)       C4H7O2(70)  S(71)       S(72)
                     S(73)       C2H3O2(74)  S(75)       S(76)
                     S(77)       C3H5O2(78)  S(79)       C2H3O(80)
                     C4H8(81)    S(82)       C3H6(83)    S(84)
                     S(85)       S(86)       S(87)       S(88)
                     C4H7O4(89)  C4H8O4(90)  S(91)       S(92)
                     CH3O2(93)   C2H3O3(94)  C2H4O3(95)  S(96)
                     C5H9O2(97)  C4H9(98)    S(99)       S(100)
                     S(101)      S(102)      S(103)      S(104)
                     S(105)      S(106)      C5H9O(107)  CH2O3(108)
                     S(109)      S(110)      S(111)      S(112)
                     S(113)      S(114)      S(115)      S(116)
                     S(117)      S(118)      S(119)      S(120)
                     S(121)      C5H8O(123)  CHO2(151)   C2H5O(193)
                     S(213)      S(214)      S(217)      S(237)
                     S(265)      S(267)      CHO3(321)   S(326)
                     S(328)      S(330)      S(331)      S(332)
                     S(333)      S(334)      S(336)      S(353)
                     S(617)      S(849)      S(979)      S(1585)
                     S(2127)     S(2320)     S(2490)     S(2497)
                     S(2627)     S(2771)     S(2772)     S(2879)
                     CCOO(3136)  S(3223)     S(3224)     S(3225)
                     S(3226)     S(3425)     S(3459)     S(3468)
                     S(3529)     S(3538)     S(3568)     S(3742)
                     S(3842)     S(3843)     S(3850)     S(3864)
                     S(3865)     S(3870)     S(3888)     S(4006)
                     S(4478)     S(4481)     S(4628)     S(4749)
                     S(4837)     S(4918)     S(4919)     S(4930)
                     S(4943)     S(5016)     S(5372)     S(5591)
                     S(5646)     S(5649)     S(5653)     S(5728)
                     S(5730)     S(5946)     S(6019)     S(6025)
                     S(6048)     S(6842)     S(6851)     S(8118)
                     S(8278)     S(8636)     S(8785)     S(8852)
                     S(9253)     S(9996)     S(10065)    S(10066)
                     S(10070)    S(10410)    S(10415)    S(10548)
                     S(11086)    S(11215)    S(11235)    S(11539)
                     S(11545)    S(11678)    S(12919)""",
          reactions='all',
          initial_state=state(temperature=300.0, pressure=OneAtm,
            mole_fractions='MV(1):0.0499,O2(2):0.1996,N2:0.3753,Ar:0.3752'))

#-------------------------------------------------------------------------------
# Species data
#-------------------------------------------------------------------------------

species(name='N2',
        atoms='N:2',
        thermo=(NASA([200.00, 1000.00],
                     [ 3.53101000E+00, -1.23661000E-04, -5.02999000E-07,
                       2.43531000E-09, -1.40881000E-12, -1.04698000E+03,
                       2.96747000E+00]),
                NASA([1000.00, 6000.00],
                     [ 2.95258000E+00,  1.39690000E-03, -4.92632000E-07,
                       7.86010000E-11, -4.60755000E-15, -9.23949000E+02,
                       5.87189000E+00])))

species(name='Ar',
        atoms='Ar:1',
        thermo=(NASA([200.00, 1000.00],
                     [ 2.50000000E+00,  0.00000000E+00,  0.00000000E+00,
                       0.00000000E+00,  0.00000000E+00, -7.45375000E+02,
                       4.37967000E+00]),
                NASA([1000.00, 6000.00],
                     [ 2.50000000E+00,  0.00000000E+00,  0.00000000E+00,
                       0.00000000E+00,  0.00000000E+00, -7.45375000E+02,
                       4.37967000E+00])))

species(name='He',
        atoms='He:1',
        thermo=(NASA([200.00, 1000.00],
                     [ 2.50000000E+00,  0.00000000E+00,  0.00000000E+00,
                       0.00000000E+00,  0.00000000E+00, -7.45375000E+02,
                       9.28724000E-01]),
                NASA([1000.00, 6000.00],
                     [ 2.50000000E+00,  0.00000000E+00,  0.00000000E+00,
                       0.00000000E+00,  0.00000000E+00, -7.45375000E+02,
                       9.28724000E-01])))

species(name='Ne',
        atoms='Ne:1',
        thermo=(NASA([200.00, 1000.00],
                     [ 2.50000000E+00,  0.00000000E+00,  0.00000000E+00,
                       0.00000000E+00,  0.00000000E+00, -7.45375000E+02,
                       3.35532000E+00]),
                NASA([1000.00, 6000.00],
                     [ 2.50000000E+00,  0.00000000E+00,  0.00000000E+00,
                       0.00000000E+00,  0.00000000E+00, -7.45375000E+02,
                       3.35532000E+00])))

species(name='MV(1)',
        atoms='H:12 C:6 O:2',
        thermo=(NASA([100.00, 907.56],
                     [ 6.63648426E-01,  8.10614934E-02, -6.70001545E-05,
                       3.47395466E-08, -8.49798587E-12, -5.99581507E+04,
                       2.67475164E+01]),
                NASA([907.56, 5000.00],
                     [ 6.17493174E+00,  5.67698882E-02, -2.68496544E-05,
                       5.24490080E-09, -3.72923987E-13, -6.09584714E+04,
                       6.93569469E-01])))

species(name='O2(2)',
        atoms='O:2',
        thermo=(NASA([100.00, 1074.56],
                     [ 3.53732180E+00, -1.21570925E-03,  5.31617808E-06,
                      -4.89443401E-09,  1.45845033E-12, -1.03858846E+03,
                       4.68368408E+00]),
                NASA([1074.56, 5000.00],
                     [ 3.15382427E+00,  1.67803797E-03, -7.69970997E-07,
                       1.51274708E-10, -1.08781796E-14, -1.04081879E+03,
                       6.16753869E+00])))

species(name='MVmoo(3)',
        atoms='H:11 C:6 O:4',
        thermo=(NASA([100.00, 779.24],
                     [-8.72898268E-01,  1.21243220E-01, -1.84825220E-04,
                       1.75390670E-07, -6.74883437E-11, -5.58312932E+04,
                       3.65832991E+01]),
                NASA([779.24, 5000.00],
                     [ 4.70670330E+00,  6.80625155E-02, -3.52179118E-05,
                       6.98386880E-09, -4.93859127E-13, -5.59558217E+04,
                       1.58372487E+01])))

species(name='MVmq5j(4)',
        atoms='H:11 C:6 O:4',
        thermo=(NASA([100.00, 760.96],
                     [-1.07649473E+00,  1.25304501E-01, -1.89765389E-04,
                       1.77674706E-07, -6.81905971E-11, -4.94200205E+04,
                       3.83416940E+01]),
                NASA([760.96, 5000.00],
                     [ 5.99638822E+00,  6.75956437E-02, -3.55410538E-05,
                       7.10646579E-09, -5.05455086E-13, -4.99020497E+04,
                       1.00568981E+01])))

species(name='MVmq4j(5)',
        atoms='H:11 C:6 O:4',
        thermo=(NASA([100.00, 794.73],
                     [-9.41532197E-01,  1.25107734E-01, -1.99920134E-04,
                       1.95299462E-07, -7.58352347E-11, -5.07266106E+04,
                       3.88045741E+01]),
                NASA([794.73, 5000.00],
                     [ 3.24413325E+00,  7.15043087E-02, -3.73367166E-05,
                       7.39974142E-09, -5.21875177E-13, -5.03644217E+04,
                       2.60372035E+01])))

species(name='MVmq3j(6)',
        atoms='H:11 C:6 O:4',
        thermo=(NASA([100.00, 800.46],
                     [-9.09263681E-01,  1.25645305E-01, -2.05334963E-04,
                       2.03962079E-07, -7.97771658E-11, -5.07275564E+04,
                       3.85165871E+01]),
                NASA([800.46, 5000.00],
                     [ 2.19114889E+00,  7.33850612E-02, -3.85044874E-05,
                       7.63375324E-09, -5.37954779E-13, -5.00460100E+04,
                       3.16065815E+01])))

species(name='MVmq2j(7)',
        atoms='H:11 C:6 O:4',
        thermo=(NASA([100.00, 770.78],
                     [-9.40419094E-01,  1.23607663E-01, -1.91868964E-04,
                       1.85592202E-07, -7.27478473E-11, -5.07136700E+04,
                       3.86200874E+01]),
                NASA([770.78, 5000.00],
                     [ 4.14357497E+00,  7.07518444E-02, -3.74898888E-05,
                       7.50692934E-09, -5.33791081E-13, -5.07110453E+04,
                       2.05174234E+01])))

species(name='MVmqmj(8)',
        atoms='H:11 C:6 O:4',
        thermo=(NASA([100.00, 760.96],
                     [-1.07649473E+00,  1.25304501E-01, -1.89765389E-04,
                       1.77674706E-07, -6.81905971E-11, -4.94200205E+04,
                       3.79362289E+01]),
                NASA([760.96, 5000.00],
                     [ 5.99638822E+00,  6.75956437E-02, -3.55410538E-05,
                       7.10646579E-09, -5.05455086E-13, -4.99020497E+04,
                       9.65143297E+00])))

species(name='MV2oo(9)',
        atoms='H:11 C:6 O:4',
        thermo=(NASA([100.00, 958.41],
                     [-1.42386090E-01,  9.94855977E-02, -9.44862535E-05,
                       5.21465240E-08, -1.25876648E-11, -5.34836872E+04,
                       3.49202870E+01]),
                NASA([958.41, 5000.00],
                     [ 1.01544935E+01,  5.65095228E-02, -2.72228047E-05,
                       5.35696026E-09, -3.82317887E-13, -5.54573571E+04,
                      -1.43185018E+01])))

species(name='MV2q5j(10)',
        atoms='H:11 C:6 O:4',
        thermo=(NASA([100.00, 1016.59],
                     [-2.87913775E-01,  1.02897064E-01, -9.72036190E-05,
                       5.13110167E-08, -1.16794036E-11, -4.70750805E+04,
                       3.64671492E+01]),
                NASA([1016.59, 5000.00],
                     [ 1.17727086E+01,  5.54410633E-02, -2.71801171E-05,
                       5.38973568E-09, -3.86244944E-13, -4.95271811E+04,
                      -2.19166247E+01])))

species(name='MV2q4j(11)',
        atoms='H:11 C:6 O:4',
        thermo=(NASA([100.00, 785.12],
                     [-3.34013770E-01,  1.04697847E-01, -1.13874080E-04,
                       7.72724561E-08, -2.31504962E-11, -4.83735703E+04,
                       3.75896051E+01]),
                NASA([785.12, 5000.00],
                     [ 8.30221921E+00,  6.06978075E-02, -2.98094980E-05,
                       5.89015767E-09, -4.20505150E-13, -4.97296512E+04,
                      -1.98586568E+00])))

species(name='MV2q3j(12)',
        atoms='H:11 C:6 O:4',
        thermo=(NASA([100.00, 950.89],
                     [-3.24283723E-01,  1.04378580E-01, -1.02896390E-04,
                       5.80250702E-08, -1.41882071E-11, -4.76554705E+04,
                       3.71229035E+01]),
                NASA([950.89, 5000.00],
                     [ 1.09477137E+01,  5.69616549E-02, -2.80971551E-05,
                       5.58317082E-09, -4.00535397E-13, -4.97991427E+04,
                      -1.66902729E+01])))

species(name='MV2q2j(13)',
        atoms='H:11 C:6 O:4',
        thermo=(NASA([100.00, 756.54],
                     [-4.38148859E-01,  1.07508641E-01, -1.21212847E-04,
                       8.57356505E-08, -2.67426715E-11, -4.92781077E+04,
                       3.62146542E+01]),
                NASA([756.54, 5000.00],
                     [ 8.17950136E+00,  6.19463374E-02, -3.08783265E-05,
                       6.13450782E-09, -4.39014873E-13, -5.05820610E+04,
                      -2.95642734E+00])))

species(name='MV2qmj(14)',
        atoms='H:11 C:6 O:4',
        thermo=(NASA([100.00, 1100.17],
                     [-6.65188712E-01,  1.09056092E-01, -1.04765554E-04,
                       5.34146819E-08, -1.13743452E-11, -4.74857070E+04,
                       3.56987876E+01]),
                NASA([1100.17, 5000.00],
                     [ 1.54811660E+01,  5.03502724E-02, -2.47233408E-05,
                       4.91102317E-09, -3.52325529E-13, -5.10384011E+04,
                      -4.37392071E+01])))

species(name='MV3oo(15)',
        atoms='H:11 C:6 O:4',
        thermo=(NASA([100.00, 738.08],
                     [-7.59208274E-01,  1.12909669E-01, -1.41413355E-04,
                       1.08837416E-07, -3.54821448E-11, -5.43227160E+04,
                       3.62036217E+01]),
                NASA([738.08, 5000.00],
                     [ 9.67782318E+00,  5.63644270E-02, -2.65328426E-05,
                       5.10509356E-09, -3.57409298E-13, -5.58638764E+04,
                      -1.09825669E+01])))

species(name='MV3q5j(16)',
        atoms='H:11 C:6 O:4',
        thermo=(NASA([100.00, 788.68],
                     [-8.40797516E-01,  1.15337905E-01, -1.39576373E-04,
                       1.00415607E-07, -3.05329386E-11, -4.79166229E+04,
                       3.75359546E+01]),
                NASA([788.68, 5000.00],
                     [ 1.08292619E+01,  5.61510597E-02, -2.70100228E-05,
                       5.26546049E-09, -3.72225541E-13, -4.97574412E+04,
                      -1.59951160E+01])))

species(name='MV3q4j(17)',
        atoms='H:11 C:6 O:4',
        thermo=(NASA([100.00, 747.55],
                     [-9.43259084E-01,  1.17807071E-01, -1.49725985E-04,
                       1.14403690E-07, -3.68535005E-11, -4.84944061E+04,
                       3.84151612E+01]),
                NASA([747.55, 5000.00],
                     [ 1.04439702E+01,  5.68704135E-02, -2.74417548E-05,
                       5.34010788E-09, -3.76398505E-13, -5.01967507E+04,
                      -1.32074064E+01])))

species(name='MV3q3j(18)',
        atoms='H:11 C:6 O:4',
        thermo=(NASA([100.00, 458.87],
                     [ 3.38426302E-01,  9.84459455E-02, -4.63044992E-05,
                      -1.25907911E-07,  1.56443100E-10, -5.01764753E+04,
                       3.28117289E+01]),
                NASA([458.87, 5000.00],
                     [ 8.48716637E+00,  6.03240569E-02, -2.92730222E-05,
                       5.65493818E-09, -3.94479777E-13, -5.12708043E+04,
                      -3.92892070E+00])))

species(name='MV3q2j(19)',
        atoms='H:11 C:6 O:4',
        thermo=(NASA([100.00, 554.48],
                     [-2.78046849E-01,  1.06937960E-01, -1.07493669E-04,
                       4.01699890E-08,  1.09899874E-11, -4.92286263E+04,
                       3.63735587E+01]),
                NASA([554.48, 5000.00],
                     [ 8.82607917E+00,  5.96228145E-02, -2.91679694E-05,
                       5.72030854E-09, -4.05397578E-13, -5.05204999E+04,
                      -4.72495513E+00])))

species(name='MV3qmj(20)',
        atoms='H:11 C:6 O:4',
        thermo=(NASA([100.00, 888.41],
                     [-1.03948257E+00,  1.19194570E-01, -1.38203206E-04,
                       8.96922874E-08, -2.41958078E-11, -4.83346042E+04,
                       3.61407744E+01]),
                NASA([888.41, 5000.00],
                     [ 1.38139569E+01,  5.23186980E-02, -2.52904133E-05,
                       4.96284993E-09, -3.53034729E-13, -5.09738182E+04,
                      -3.37611383E+01])))

species(name='MV4oo(21)',
        atoms='H:11 C:6 O:4',
        thermo=(NASA([100.00, 738.08],
                     [-7.59208274E-01,  1.12909669E-01, -1.41413355E-04,
                       1.08837416E-07, -3.54821448E-11, -5.43227160E+04,
                       3.62036217E+01]),
                NASA([738.08, 5000.00],
                     [ 9.67782318E+00,  5.63644270E-02, -2.65328426E-05,
                       5.10509356E-09, -3.57409298E-13, -5.58638764E+04,
                      -1.09825669E+01])))

species(name='MV4q5j(22)',
        atoms='H:11 C:6 O:4',
        thermo=(NASA([100.00, 813.07],
                     [-9.36947837E-01,  1.17233902E-01, -1.41881935E-04,
                       1.00031322E-07, -2.95563287E-11, -4.68645668E+04,
                       3.80905543E+01]),
                NASA([813.07, 5000.00],
                     [ 1.18213969E+01,  5.44652338E-02, -2.60781460E-05,
                       5.07582658E-09, -3.58624659E-13, -4.89391733E+04,
                      -2.08204112E+01])))

species(name='MV4q4j(23)',
        atoms='H:11 C:6 O:4',
        thermo=(NASA([100.00, 458.87],
                     [ 3.38426302E-01,  9.84459455E-02, -4.63044992E-05,
                      -1.25907911E-07,  1.56443100E-10, -5.01764753E+04,
                       3.28117289E+01]),
                NASA([458.87, 5000.00],
                     [ 8.48716637E+00,  6.03240569E-02, -2.92730222E-05,
                       5.65493818E-09, -3.94479777E-13, -5.12708043E+04,
                      -3.92892070E+00])))

species(name='MV4q3j(24)',
        atoms='H:11 C:6 O:4',
        thermo=(NASA([100.00, 747.55],
                     [-9.43259084E-01,  1.17807071E-01, -1.49725985E-04,
                       1.14403690E-07, -3.68535005E-11, -4.84944061E+04,
                       3.84151612E+01]),
                NASA([747.55, 5000.00],
                     [ 1.04439702E+01,  5.68704135E-02, -2.74417548E-05,
                       5.34010788E-09, -3.76398505E-13, -5.01967507E+04,
                      -1.32074064E+01])))

species(name='MV4q2j(25)',
        atoms='H:11 C:6 O:4',
        thermo=(NASA([100.00, 554.48],
                     [-2.78046849E-01,  1.06937960E-01, -1.07493669E-04,
                       4.01699890E-08,  1.09899874E-11, -4.92286263E+04,
                       3.63735587E+01]),
                NASA([554.48, 5000.00],
                     [ 8.82607917E+00,  5.96228145E-02, -2.91679694E-05,
                       5.72030854E-09, -4.05397578E-13, -5.05204999E+04,
                      -4.72495513E+00])))

species(name='MV4qmj(26)',
        atoms='H:11 C:6 O:4',
        thermo=(NASA([100.00, 888.41],
                     [-1.03948257E+00,  1.19194570E-01, -1.38203206E-04,
                       8.96922874E-08, -2.41958078E-11, -4.83346042E+04,
                       3.61407744E+01]),
                NASA([888.41, 5000.00],
                     [ 1.38139569E+01,  5.23186980E-02, -2.52904133E-05,
                       4.96284993E-09, -3.53034729E-13, -5.09738182E+04,
                      -3.37611383E+01])))

species(name='MV5oo(27)',
        atoms='H:11 C:6 O:4',
        thermo=(NASA([100.00, 744.48],
                     [-7.43448129E-01,  1.15762167E-01, -1.63386168E-04,
                       1.47998928E-07, -5.63070889E-11, -5.21285961E+04,
                       3.69380335E+01]),
                NASA([744.48, 5000.00],
                     [ 6.13418396E+00,  6.50080016E-02, -3.33176297E-05,
                       6.62416090E-09, -4.70887251E-13, -5.27701728E+04,
                       8.35554905E+00])))

species(name='MV5q5j(28)',
        atoms='H:11 C:6 O:4',
        thermo=(NASA([100.00, 735.59],
                     [-1.00330374E+00,  1.22096066E-01, -1.75614653E-04,
                       1.59098537E-07, -6.04630137E-11, -4.77205184E+04,
                       3.72609747E+01]),
                NASA([735.59, 5000.00],
                     [ 6.90315568E+00,  6.59808032E-02, -3.44285532E-05,
                       6.89129897E-09, -4.91663921E-13, -4.85287066E+04,
                       3.95780659E+00])))

species(name='MV5q4j(29)',
        atoms='H:11 C:6 O:4',
        thermo=(NASA([100.00, 733.20],
                     [-9.69221337E-01,  1.21233697E-01, -1.74167786E-04,
                       1.57619529E-07, -5.99052715E-11, -4.62985125E+04,
                       3.92944334E+01]),
                NASA([733.20, 5000.00],
                     [ 6.94589440E+00,  6.54286657E-02, -3.41739367E-05,
                       6.84614176E-09, -4.88756657E-13, -4.71198717E+04,
                       5.87886044E+00])))

species(name='MV5q3j(30)',
        atoms='H:11 C:6 O:4',
        thermo=(NASA([100.00, 781.64],
                     [-8.13302856E-01,  1.20598386E-01, -1.85593959E-04,
                       1.78999651E-07, -6.97047009E-11, -4.70234455E+04,
                       3.89888946E+01]),
                NASA([781.64, 5000.00],
                     [ 3.72547088E+00,  7.01351930E-02, -3.64856266E-05,
                       7.24497896E-09, -5.12504674E-13, -4.69009648E+04,
                       2.35323607E+01])))

species(name='MV5q2j(31)',
        atoms='H:11 C:6 O:4',
        thermo=(NASA([100.00, 737.02],
                     [-8.09979383E-01,  1.18119270E-01, -1.70440315E-04,
                       1.58312354E-07, -6.16905313E-11, -4.70110124E+04,
                       3.89710908E+01]),
                NASA([737.02, 5000.00],
                     [ 5.55121280E+00,  6.77336070E-02, -3.56116298E-05,
                       7.15262108E-09, -5.11279695E-13, -4.75178761E+04,
                       1.31456757E+01])))

species(name='MV5qmj(32)',
        atoms='H:11 C:6 O:4',
        thermo=(NASA([100.00, 729.56],
                     [-9.43308010E-01,  1.20737758E-01, -1.53677022E-04,
                       1.17227826E-07, -3.83811741E-11, -4.61438405E+04,
                       3.66081285E+01]),
                NASA([729.56, 5000.00],
                     [ 9.79261989E+00,  6.18728828E-02, -3.26439284E-05,
                       6.62415968E-09, -4.78820405E-13, -4.77102775E+04,
                      -1.18008962E+01])))

species(name='O(33)',
        atoms='O:1',
        thermo=(NASA([100.00, 3603.63],
                     [ 2.50000000E+00,  7.33543257E-15, -1.06533191E-17,
                       5.08487260E-21, -7.48296109E-25,  2.92302441E+04,
                       4.09104286E+00]),
                NASA([3603.63, 5000.00],
                     [ 2.49999999E+00,  1.31148164E-11, -4.98038298E-15,
                       8.34528360E-19, -5.20503078E-23,  2.92302441E+04,
                       4.09104294E+00])))

species(name='H2(34)',
        atoms='H:2',
        thermo=(NASA([100.00, 1959.08],
                     [ 3.43536425E+00,  2.12709233E-04, -2.78622503E-07,
                       3.40265174E-10, -7.76027065E-14, -1.03135985E+03,
                      -3.90841782E+00]),
                NASA([1959.08, 5000.00],
                     [ 2.78815235E+00,  5.87658454E-04,  1.59002218E-07,
                      -5.52722572E-11,  4.34298991E-15, -5.96136317E+02,
                       1.12812555E-01])))

species(name='H(35)',
        atoms='H:1',
        thermo=(NASA([100.00, 3603.63],
                     [ 2.50000000E+00,  7.33543257E-15, -1.06533191E-17,
                       5.08487260E-21, -7.48296109E-25,  2.54742178E+04,
                      -4.44972896E-01]),
                NASA([3603.63, 5000.00],
                     [ 2.49999999E+00,  1.31148164E-11, -4.98038298E-15,
                       8.34528360E-19, -5.20503078E-23,  2.54742178E+04,
                      -4.44972817E-01])))

species(name='OH(36)',
        atoms='H:1 O:1',
        thermo=(NASA([100.00, 1145.76],
                     [ 3.51456840E+00,  2.92734061E-05, -5.32150522E-07,
                       1.01947512E-09, -3.85939371E-13,  3.41425418E+03,
                       2.10434755E+00]),
                NASA([1145.76, 5000.00],
                     [ 3.07193723E+00,  6.04019864E-04, -1.39806067E-08,
                      -2.13440782E-11,  2.48061341E-15,  3.57938793E+03,
                       4.57801478E+00])))

species(name='HO2(37)',
        atoms='H:1 O:2',
        thermo=(NASA([200.00, 1000.00],
                     [ 4.30180000E+00, -4.74912000E-03,  2.11583000E-05,
                      -2.42764000E-08,  9.29225000E-12,  2.94808000E+02,
                       3.71666000E+00]),
                NASA([1000.00, 3500.00],
                     [ 4.01721000E+00,  2.23982000E-03, -6.33658000E-07,
                       1.14246000E-10, -1.07909000E-14,  1.11857000E+02,
                       3.78510000E+00])))

species(name='H2O2(38)',
        atoms='H:2 O:2',
        thermo=(NASA([200.00, 1000.00],
                     [ 4.27611000E+00, -5.42822000E-04,  1.67336000E-05,
                      -2.15771000E-08,  8.62454000E-12, -1.77026000E+04,
                       3.43505000E+00]),
                NASA([1000.00, 3500.00],
                     [ 4.16500000E+00,  4.90832000E-03, -1.90139000E-06,
                       3.71186000E-10, -2.87908000E-14, -1.78618000E+04,
                       2.91616000E+00])))

species(name='CH(39)',
        atoms='H:1 C:1',
        thermo=(NASA([200.00, 1000.00],
                     [ 3.48982000E+00,  3.23836000E-04, -1.68899000E-06,
                       3.16217000E-09, -1.40609000E-12,  7.07973000E+04,
                       2.08401000E+00]),
                NASA([1000.00, 3500.00],
                     [ 2.87846000E+00,  9.70914000E-04,  1.44446000E-07,
                      -1.30688000E-10,  1.76079000E-14,  7.10124000E+04,
                       5.48498000E+00])))

species(name='CO(40)',
        atoms='C:1 O:1',
        thermo=(NASA([200.00, 1000.00],
                     [ 3.57953000E+00, -6.10354000E-04,  1.01681000E-06,
                       9.07006000E-10, -9.04424000E-13, -1.43441000E+04,
                       3.50841000E+00]),
                NASA([1000.00, 3500.00],
                     [ 2.71519000E+00,  2.06253000E-03, -9.98826000E-07,
                       2.30053000E-10, -2.03648000E-14, -1.41519000E+04,
                       7.81869000E+00])))

species(name='CH2(41)',
        atoms='H:2 C:1',
        thermo=(NASA([100.00, 1104.70],
                     [ 4.01192364E+00, -1.54976358E-04,  3.26297187E-06,
                      -2.40421206E-09,  5.69494788E-13,  4.58676802E+04,
                       5.33201398E-01]),
                NASA([1104.70, 5000.00],
                     [ 3.14983277E+00,  2.96674460E-03, -9.76057059E-07,
                       1.54115577E-10, -9.50340651E-15,  4.60581394E+04,
                       4.77808275E+00])))

species(name='HCO(42)',
        atoms='H:1 C:1 O:1',
        thermo=(NASA([200.00, 1000.00],
                     [ 4.22119000E+00, -3.24393000E-03,  1.37799000E-05,
                      -1.33144000E-08,  4.33769000E-12,  3.83956000E+03,
                       3.39437000E+00]),
                NASA([1000.00, 3500.00],
                     [ 2.77217000E+00,  4.95696000E-03, -2.48446000E-06,
                       5.89162000E-10, -5.33509000E-14,  4.01192000E+03,
                       9.79834000E+00])))

species(name='CH2(S)(43)',
        atoms='H:2 C:1',
        thermo=(NASA([100.00, 1442.34],
                     [ 4.10264544E+00, -1.44070116E-03,  5.45073741E-06,
                      -3.58006808E-09,  7.56207889E-13,  5.04005784E+04,
                      -4.11772113E-01]),
                NASA([1442.34, 5000.00],
                     [ 2.62643749E+00,  3.94768320E-03, -1.49926936E-06,
                       2.54545261E-10, -1.62960597E-14,  5.06917716E+04,
                       6.78400211E+00])))

species(name='CH3(44)',
        atoms='H:3 C:1',
        thermo=(NASA([200.00, 1000.00],
                     [ 3.67359000E+00,  2.01095000E-03,  5.73022000E-06,
                      -6.87117000E-09,  2.54386000E-12,  1.64450000E+04,
                       1.60456000E+00]),
                NASA([1000.00, 3500.00],
                     [ 2.28572000E+00,  7.23990000E-03, -2.98714000E-06,
                       5.95685000E-10, -4.67154000E-14,  1.67756000E+04,
                       8.48007000E+00])))

species(name='CH2O(45)',
        atoms='H:2 C:1 O:1',
        thermo=(NASA([200.00, 1000.00],
                     [ 4.79372000E+00, -9.90833000E-03,  3.73220000E-05,
                      -3.79285000E-08,  1.31773000E-11, -1.43090000E+04,
                       6.02813000E-01]),
                NASA([1000.00, 3500.00],
                     [ 1.76069000E+00,  9.20000000E-03, -4.42259000E-06,
                       1.00641000E-09, -8.83856000E-14, -1.39958000E+04,
                       1.36563000E+01])))

species(name='CH4(46)',
        atoms='H:4 C:1',
        thermo=(NASA([100.00, 1084.12],
                     [ 4.20541442E+00, -5.35556422E-03,  2.51122949E-05,
                      -2.13762453E-08,  5.97522374E-12, -1.01619433E+04,
                      -9.21276339E-01]),
                NASA([1084.12, 5000.00],
                     [ 9.08270429E-01,  1.14540781E-02, -4.57173390E-06,
                       8.29190655E-10, -5.66314063E-14, -9.71997650E+03,
                       1.39930678E+01])))

species(name='CO2(47)',
        atoms='C:1 O:2',
        thermo=(NASA([200.00, 1000.00],
                     [ 2.35677000E+00,  8.98460000E-03, -7.12356000E-06,
                       2.45919000E-09, -1.43700000E-13, -4.83720000E+04,
                       9.90105000E+00]),
                NASA([1000.00, 3500.00],
                     [ 3.85746000E+00,  4.41437000E-03, -2.21481000E-06,
                       5.23490000E-10, -4.72084000E-14, -4.87592000E+04,
                       2.27164000E+00])))
